/*--------------------------------*- C++ -*----------------------------------*\
| =========                 |                                                 |
| \\      /  F ield         | OpenFOAM: The Open Source CFD Toolbox           |
|  \\    /   O peration     | Version:  4.x                                   |
|   \\  /    A nd           | Web:      www.OpenFOAM.org                      |
|    \\/     M anipulation  |                                                 |
\*---------------------------------------------------------------------------*/
FoamFile
{
    version     2.0;
    format      ascii;
    class       dictionary;
    location    "system";
    object      fvSolution;
}
// * * * * * * * * * * * * * * * * * * * * * * * * * * * * * * * * * * * * * //

solvers
{
    p
    {
/*
        solver          GAMG;
        tolerance       0;
        relTol          0.0001;
        smoother        DICGaussSeidel;
preconditioner FDIC
nCellsInCoarsestLevel 1000;
agglomerator faceAreaPair;
mergeLevels 1;
*/

solver          PCG;
preconditioner  DIC;
tolerance       1e-07;
relTol          0.00001;

  }

    pFinal
    {
        $p;
        relTol          0;
    }

    "(U|k|omega)"
    {

    solver PBiCG;
    preconditioner DILU;
    tolerance 1e-7;
    relTol 0.0;
    }

    "(U|k|omega)Final"
    {
        $U;
        tolerance       1e-07;
        relTol          0;
    }
}

PIMPLE
{
    nOuterCorrectors    2;
    nCorrectors         2;
    nNonOrthogonalCorrectors 0;
    pRefCell            0;
    pRefValue           0;
}

SIMPLE
{
    nNonOrthogonalCorrectors 0;

    residualControl
    {
        U                   1e-6;
        p                   1e-5;
        "(k|epsilon|omega)" 1e-6;
    }
}

relaxationFactors
{

    fields
    {
        p              0.5;
    }
    equations
    {
        U               0.8;
        ".*"            0.7;
    }
}

// ************************************************************************* //
