/*--------------------------------*- C++ -*----------------------------------*\
  =========                 |
  \\      /  F ield         | OpenFOAM: The Open Source CFD Toolbox
   \\    /   O peration     | Website:  https://openfoam.org
    \\  /    A nd           | Version:  8
     \\/     M anipulation  |
\*---------------------------------------------------------------------------*/
FoamFile
{
    version     2.0;
    format      binary;
    class       volVectorField;
    location    "0";
    object      U;
}
// * * * * * * * * * * * * * * * * * * * * * * * * * * * * * * * * * * * * * //

dimensions      [0 1 -1 0 0 0 0];

internalField   uniform (9.39 0 0);

boundaryField
{
    BACK
    {
        type            empty;
    }
    WALL
    {
        type            fixedValue;
        value           uniform (0 0 0);
    }
    INLET
    {
        type            fixedValue;
        value           uniform (9.39 0 0);
    }
    FRONT
    {
        type            empty;
    }
    OUTLET
    {
        type            zeroGradient;
    }
}


// ************************************************************************* //
